* NGSPICE file created from sky130_ef_ip__rc_osc_500k.ext - technology: sky130A

** x2 ena vdd1v8 vdd3v3 GND GND dout sky130_ef_ip__rc_osc_500k
** .subckt sky130_ef_ip__rc_osc_500k dout dvss dvdd avss avdd ena

.subckt sky130_ef_ip__rc_osc_500k ena dvdd avdd dvss avss dout
X0 a_1178_9768# a_1344_7168# avss.t94 sky130_fd_pr__res_xhigh_po_0p35 l=11
X1 a_10660_3118# a_10494_518# avss.t0 sky130_fd_pr__res_xhigh_po_0p35 l=11
X2 a_4352_3118# a_4186_518# avss.t144 sky130_fd_pr__res_xhigh_po_0p35 l=11
X3 a_6490_9768# a_6656_7168# avss.t138 sky130_fd_pr__res_xhigh_po_0p35 l=11
X4 a_3502_9768# a_3336_7168# avss.t142 sky130_fd_pr__res_xhigh_po_0p35 l=11
X5 a_5162_9768# a_4996_7168# avss.t147 sky130_fd_pr__res_xhigh_po_0p35 l=11
X6 a_8814_9768# a_8648_7168# avss.t93 sky130_fd_pr__res_xhigh_po_0p35 l=11
X7 avdd.t42 a_2858_518# avss.t145 sky130_fd_pr__res_xhigh_po_0p35 l=11
X8 a_7718_4786# ena.t0 a_7560_4786# avss.t23 sky130_fd_pr__nfet_g5v0d10v5 ad=0.1218 pd=1.42 as=0.1218 ps=1.42 w=0.42 l=0.5
X9 a_7154_9768# a_7320_7168# avss.t143 sky130_fd_pr__res_xhigh_po_0p35 l=11
X10 a_5348_3118# a_5182_518# avss.t146 sky130_fd_pr__res_xhigh_po_0p35 l=11
X11 a_11636_7168# a_11490_518# avss.t166 sky130_fd_pr__res_xhigh_po_0p35 l=11
X12 a_4166_9768# a_4000_7168# avss.t56 sky130_fd_pr__res_xhigh_po_0p35 l=11
X13 a_11138_9768# a_11304_7168# avss.t116 sky130_fd_pr__res_xhigh_po_0p35 l=11
X14 a_4194_4788.t0 a_3638_4788.t2 a_4036_4788# avss.t1 sky130_fd_pr__nfet_g5v0d10v5 ad=0.1218 pd=1.42 as=0.1218 ps=1.42 w=0.42 l=0.5
X15 avdd.t31 a_3854_518# avss.t96 sky130_fd_pr__res_xhigh_po_0p35 l=11
X16 a_2506_9768# a_2340_7168# avss.t115 sky130_fd_pr__res_xhigh_po_0p35 l=11
X17 a_9478_9768# a_9312_7168# avss.t68 sky130_fd_pr__res_xhigh_po_0p35 l=11
X18 a_7818_9768# a_7652_7168# avss.t125 sky130_fd_pr__res_xhigh_po_0p35 l=11
X19 a_6344_3118# a_6178_518# avss.t114 sky130_fd_pr__res_xhigh_po_0p35 l=11
X20 avdd.t9 a_2368_4788.t2 a_2368_4788.t3 avdd.t0 sky130_fd_pr__pfet_g5v0d10v5 ad=0.1218 pd=1.42 as=0.1218 ps=1.42 w=0.42 l=0.5
X21 avdd.t8 a_866_518# avss.t45 sky130_fd_pr__res_xhigh_po_0p35 l=11
X22 a_846_9768# a_1012_7168# avss.t55 sky130_fd_pr__res_xhigh_po_0p35 l=11
X23 a_6158_9768# a_6324_7168# avss.t113 sky130_fd_pr__res_xhigh_po_0p35 l=11
X24 a_4684_3118# a_4850_518# avss.t67 sky130_fd_pr__res_xhigh_po_0p35 l=11
X25 a_10806_9768# a_10972_7168# avss.t124 sky130_fd_pr__res_xhigh_po_0p35 l=11
X26 avss.t121 ena.t1 rc_osc_level_shifter_0.outb_h.t1 avss.t120 sky130_fd_pr__nfet_g5v0d10v5 ad=0.1218 pd=1.42 as=0.1218 ps=1.42 w=0.42 l=0.5
X27 a_10142_9768# a_10308_7168# avss.t48 sky130_fd_pr__res_xhigh_po_0p35 l=11
X28 a_7340_3118# a_7174_518# avss.t16 sky130_fd_pr__res_xhigh_po_0p35 l=11
X29 avdd.t30 a_2368_4788.t4 a_4854_5653# avdd.t5 sky130_fd_pr__pfet_g5v0d10v5 ad=0.1218 pd=1.42 as=0.1218 ps=1.42 w=0.42 l=0.5
X30 a_5826_9768# a_5992_7168# avss.t60 sky130_fd_pr__res_xhigh_po_0p35 l=11
X31 a_5162_9768# a_5328_7168# avss.t54 sky130_fd_pr__res_xhigh_po_0p35 l=11
X32 avdd.t45 a_2368_4788.t5 a_5470_5653# avdd.t38 sky130_fd_pr__pfet_g5v0d10v5 ad=0.1218 pd=1.42 as=0.1218 ps=1.42 w=0.42 l=0.5
X33 avdd.t21 a_1862_518# avss.t91 sky130_fd_pr__res_xhigh_po_0p35 l=11
X34 a_5680_3118# a_5846_518# avss.t112 sky130_fd_pr__res_xhigh_po_0p35 l=11
X35 a_9146_9768# a_8980_7168# avss.t15 sky130_fd_pr__res_xhigh_po_0p35 l=11
X36 a_8336_3118# a_8170_518# avss.t90 sky130_fd_pr__res_xhigh_po_0p35 l=11
X37 a_4830_9768# a_4996_7168# avss.t53 sky130_fd_pr__res_xhigh_po_0p35 l=11
X38 avdd.t11 a_2858_518# avss.t52 sky130_fd_pr__res_xhigh_po_0p35 l=11
X39 a_6676_3118# a_6842_518# avss.t111 sky130_fd_pr__res_xhigh_po_0p35 l=11
X40 avdd.t29 a_1530_518# avss.t92 sky130_fd_pr__res_xhigh_po_0p35 l=11
X41 a_10474_9768# a_10640_7168# avss.t51 sky130_fd_pr__res_xhigh_po_0p35 l=11
X42 a_3082_4788.t2 avss.t61 sky130_fd_pr__cap_mim_m3_1 l=6 w=3
X43 a_1842_9768# a_1676_7168# avss.t110 sky130_fd_pr__res_xhigh_po_0p35 l=11
X44 a_9332_3118# a_9166_518# avss.t141 sky130_fd_pr__res_xhigh_po_0p35 l=11
X45 avdd.t39 a_3854_518# avss.t126 sky130_fd_pr__res_xhigh_po_0p35 l=11
X46 avdd.t1 rc_osc_level_shifter_0.out_h.t2 a_2368_4788.t0 avdd.t0 sky130_fd_pr__pfet_g5v0d10v5 ad=0.1218 pd=1.42 as=0.1218 ps=1.42 w=0.42 l=0.5
X47 dvdd.t4 ena.t2 rc_osc_level_shifter_0.inb_l dvdd.t3 sky130_fd_pr__pfet_01v8 ad=0.29 pd=2.58 as=0.29 ps=2.58 w=1 l=0.15
X48 a_5494_9768# a_5660_7168# avss.t36 sky130_fd_pr__res_xhigh_po_0p35 l=11
X49 a_4750_4788.t2 avss.t117 sky130_fd_pr__cap_mim_m3_1 l=6 w=3
X50 a_4750_4788.t1 a_4194_4788.t2 a_4854_5653# avdd.t5 sky130_fd_pr__pfet_g5v0d10v5 ad=0.1218 pd=1.42 as=0.1218 ps=1.42 w=0.42 l=0.5
X51 a_3638_4788.t3 avss.t57 sky130_fd_pr__cap_mim_m3_1 l=6 w=3
X52 a_10328_3118# a_10162_518# avss.t85 sky130_fd_pr__res_xhigh_po_0p35 l=11
X53 a_7672_3118# a_7838_518# avss.t14 sky130_fd_pr__res_xhigh_po_0p35 l=11
X54 a_1414_4786.t3 rc_osc_level_shifter_0.outb_h.t2 avss.t101 avss.t100 sky130_fd_pr__nfet_g5v0d10v5 ad=0.1218 pd=1.42 as=0.1218 ps=1.42 w=0.42 l=0.5
X55 avdd.t40 a_534_518# avss.t130 sky130_fd_pr__res_xhigh_po_0p35 l=11
X56 avdd.t13 a_2526_518# avss.t59 sky130_fd_pr__res_xhigh_po_0p35 l=11
X57 a_1414_4786.t0 rc_osc_level_shifter_0.out_h.t3 a_514_7168.t0 avss.t5 sky130_fd_pr__nfet_g5v0d10v5 ad=0.1218 pd=1.42 as=0.1218 ps=1.42 w=0.42 l=0.5
X58 avdd.t7 a_1198_518# avss.t44 sky130_fd_pr__res_xhigh_po_0p35 l=11
X59 a_5306_4788.t1 a_4750_4788.t3 a_5470_5653# avdd.t38 sky130_fd_pr__pfet_g5v0d10v5 ad=0.1218 pd=1.42 as=0.1218 ps=1.42 w=0.42 l=0.5
X60 a_11324_3118# a_11158_518# avss.t119 sky130_fd_pr__res_xhigh_po_0p35 l=11
X61 a_5016_3118# a_4850_518# avss.t40 sky130_fd_pr__res_xhigh_po_0p35 l=11
X62 a_4498_9768# a_4664_7168# avss.t49 sky130_fd_pr__res_xhigh_po_0p35 l=11
X63 a_5306_4788.t2 avss.t139 sky130_fd_pr__cap_mim_m3_1 l=6 w=3
X64 a_8668_3118# a_8834_518# avss.t136 sky130_fd_pr__res_xhigh_po_0p35 l=11
X65 a_9810_9768# a_9976_7168# avss.t13 sky130_fd_pr__res_xhigh_po_0p35 l=11
X66 avdd.t16 a_2368_4788.t6 a_3622_5653# avdd.t15 sky130_fd_pr__pfet_g5v0d10v5 ad=0.1218 pd=1.42 as=0.1218 ps=1.42 w=0.42 l=0.5
X67 avdd.t35 a_3522_518# avss.t109 sky130_fd_pr__res_xhigh_po_0p35 l=11
X68 avdd.t10 a_2194_518# avss.t50 sky130_fd_pr__res_xhigh_po_0p35 l=11
X69 a_6260_4788# a_1414_4786.t4 avss.t77 avss.t76 sky130_fd_pr__nfet_g5v0d10v5 ad=0.1218 pd=1.42 as=0.1218 ps=1.42 w=0.42 l=0.5
X70 a_3170_9768# a_3004_7168# avss.t135 sky130_fd_pr__res_xhigh_po_0p35 l=11
X71 a_6012_3118# a_5846_518# avss.t89 sky130_fd_pr__res_xhigh_po_0p35 l=11
X72 a_1510_9768# a_1344_7168# avss.t164 sky130_fd_pr__res_xhigh_po_0p35 l=11
X73 a_6822_9768# a_6656_7168# avss.t35 sky130_fd_pr__res_xhigh_po_0p35 l=11
X74 a_8482_9768# a_8316_7168# avss.t129 sky130_fd_pr__res_xhigh_po_0p35 l=11
X75 avdd.t20 a_2368_4788.t7 a_3006_5653# avdd.t4 sky130_fd_pr__pfet_g5v0d10v5 ad=0.1218 pd=1.42 as=0.1218 ps=1.42 w=0.42 l=0.5
X76 a_9664_3118# a_9830_518# avss.t95 sky130_fd_pr__res_xhigh_po_0p35 l=11
X77 avdd.t22 a_2368_4788.t8 a_4238_5653# avdd.t12 sky130_fd_pr__pfet_g5v0d10v5 ad=0.1218 pd=1.42 as=0.1218 ps=1.42 w=0.42 l=0.5
X78 dvss.t5 ena.t3 rc_osc_level_shifter_0.inb_l dvss.t4 sky130_fd_pr__nfet_01v8 ad=0.29 pd=2.58 as=0.29 ps=2.58 w=1 l=0.15
X79 a_10806_9768# a_10640_7168# avss.t165 sky130_fd_pr__res_xhigh_po_0p35 l=11
X80 a_9482_5327# rc_osc_level_shifter_0.out_h.t4 rc_osc_level_shifter_0.outb_h.t0 avdd.t17 sky130_fd_pr__pfet_g5v0d10v5 ad=0.1218 pd=1.42 as=0.1218 ps=1.42 w=0.42 l=0.5
X81 avdd.t33 a_3190_518# avss.t104 sky130_fd_pr__res_xhigh_po_0p35 l=11
X82 a_3502_9768# a_3668_7168# avss.t140 sky130_fd_pr__res_xhigh_po_0p35 l=11
X83 avdd.t24 a_2368_4788.t9 a_6702_5653# avdd.t23 sky130_fd_pr__pfet_g5v0d10v5 ad=0.1218 pd=1.42 as=0.1218 ps=1.42 w=0.42 l=0.5
X84 a_4352_3118# a_4518_518# avss.t39 sky130_fd_pr__res_xhigh_po_0p35 l=11
X85 a_2174_9768# a_2008_7168# avss.t84 sky130_fd_pr__res_xhigh_po_0p35 l=11
X86 a_7486_9768# a_7320_7168# avss.t34 sky130_fd_pr__res_xhigh_po_0p35 l=11
X87 a_10660_3118# a_10826_518# avss.t66 sky130_fd_pr__res_xhigh_po_0p35 l=11
X88 a_5826_9768# a_5660_7168# avss.t83 sky130_fd_pr__res_xhigh_po_0p35 l=11
X89 dout.t2 a_7718_4786# dvdd.t6 dvdd.t5 sky130_fd_pr__pfet_01v8 ad=0.29 pd=2.58 as=0.29 ps=2.58 w=1 l=0.15
X90 a_7008_3118# a_6842_518# avss.t58 sky130_fd_pr__res_xhigh_po_0p35 l=11
X91 avdd.t34 a_1530_518# avss.t108 sky130_fd_pr__res_xhigh_po_0p35 l=11
X92 avdd.t43 a_2368_4788.t10 a_6086_5653# avdd.t37 sky130_fd_pr__pfet_g5v0d10v5 ad=0.1218 pd=1.42 as=0.1218 ps=1.42 w=0.42 l=0.5
X93 a_9332_3118# a_9498_518# avss.t20 sky130_fd_pr__res_xhigh_po_0p35 l=11
X94 a_11890_5939# a_7718_4786# dvss.t7 dvss.t6 sky130_fd_pr__nfet_01v8 ad=0.145 pd=1.58 as=0.145 ps=1.58 w=0.5 l=0.15
X95 dvss.t3 ena.t4 sky130_fd_pr__diode_pw2nd_05v5 perim=1.8e+06 area=2.025e+11
X96 a_4166_9768# a_4332_7168# avss.t99 sky130_fd_pr__res_xhigh_po_0p35 l=11
X97 a_5348_3118# a_5514_518# avss.t33 sky130_fd_pr__res_xhigh_po_0p35 l=11
X98 avdd.t18 a_4186_518# avss.t79 sky130_fd_pr__res_xhigh_po_0p35 l=11
X99 a_9478_9768# a_9644_7168# avss.t65 sky130_fd_pr__res_xhigh_po_0p35 l=11
X100 a_10328_3118# a_10494_518# avss.t134 sky130_fd_pr__res_xhigh_po_0p35 l=11
X101 a_514_9768# a_680_7168# avss.t38 sky130_fd_pr__res_xhigh_po_0p35 l=11
X102 rc_osc_level_shifter_0.out_h.t1 rc_osc_level_shifter_0.outb_h.t3 a_8714_4659# avdd.t27 sky130_fd_pr__pfet_g5v0d10v5 ad=0.1218 pd=1.42 as=0.1218 ps=1.42 w=0.42 l=0.5
X103 a_1178_9768# a_1012_7168# avss.t32 sky130_fd_pr__res_xhigh_po_0p35 l=11
X104 a_8004_3118# a_7838_518# avss.t133 sky130_fd_pr__res_xhigh_po_0p35 l=11
X105 avdd.t44 a_2526_518# avss.t156 sky130_fd_pr__res_xhigh_po_0p35 l=11
X106 a_5148_4788# a_1414_4786.t5 avss.t75 avss.t74 sky130_fd_pr__nfet_g5v0d10v5 ad=0.1218 pd=1.42 as=0.1218 ps=1.42 w=0.42 l=0.5
X107 a_2982_4700.t0 a_5862_4788# a_6260_4788# avss.t76 sky130_fd_pr__nfet_g5v0d10v5 ad=0.1218 pd=1.42 as=0.1218 ps=1.42 w=0.42 l=0.5
X108 a_8150_9768# a_7984_7168# avss.t64 sky130_fd_pr__res_xhigh_po_0p35 l=11
X109 rc_osc_level_shifter_0.out_h.t0 rc_osc_level_shifter_0.inb_l avss.t42 avss.t41 sky130_fd_pr__nfet_g5v0d10v5 ad=0.1218 pd=1.42 as=0.1218 ps=1.42 w=0.42 l=0.5
X110 a_5704_4788# a_1414_4786.t6 avss.t73 avss.t72 sky130_fd_pr__nfet_g5v0d10v5 ad=0.1218 pd=1.42 as=0.1218 ps=1.42 w=0.42 l=0.5
X111 a_6344_3118# a_6510_518# avss.t132 sky130_fd_pr__res_xhigh_po_0p35 l=11
X112 a_3638_4788.t1 a_3082_4788.t3 a_3622_5653# avdd.t15 sky130_fd_pr__pfet_g5v0d10v5 ad=0.1218 pd=1.42 as=0.1218 ps=1.42 w=0.42 l=0.5
X113 a_11324_3118# a_11490_518# avss.t37 sky130_fd_pr__res_xhigh_po_0p35 l=11
X114 a_5016_3118# a_5182_518# avss.t31 sky130_fd_pr__res_xhigh_po_0p35 l=11
X115 avdd.t19 a_866_518# avss.t88 sky130_fd_pr__res_xhigh_po_0p35 l=11
X116 a_9000_3118# a_8834_518# avss.t155 sky130_fd_pr__res_xhigh_po_0p35 l=11
X117 dvss.t1 rc_osc_level_shifter_0.inb_l dout.t0 dvss.t0 sky130_fd_pr__nfet_01v8 ad=0.1218 pd=1.42 as=0.1218 ps=1.42 w=0.42 l=0.15
X118 a_3480_4788# a_1414_4786.t7 avss.t70 avss.t17 sky130_fd_pr__nfet_g5v0d10v5 ad=0.1218 pd=1.42 as=0.1218 ps=1.42 w=0.42 l=0.5
X119 a_3170_9768# a_3336_7168# avss.t128 sky130_fd_pr__res_xhigh_po_0p35 l=11
X120 a_8482_9768# a_8648_7168# avss.t82 sky130_fd_pr__res_xhigh_po_0p35 l=11
X121 a_3082_4788.t1 a_2982_4700.t2 a_3006_5653# avdd.t4 sky130_fd_pr__pfet_g5v0d10v5 ad=0.1218 pd=1.42 as=0.1218 ps=1.42 w=0.42 l=0.5
X122 a_4194_4788.t1 a_3638_4788.t4 a_4238_5653# avdd.t12 sky130_fd_pr__pfet_g5v0d10v5 ad=0.1218 pd=1.42 as=0.1218 ps=1.42 w=0.42 l=0.5
X123 dvdd.t2 ena.t5 a_7718_4786# dvdd.t1 sky130_fd_pr__pfet_01v8 ad=0.1218 pd=1.42 as=0.1218 ps=1.42 w=0.42 l=0.15
X124 a_7154_9768# a_6988_7168# avss.t127 sky130_fd_pr__res_xhigh_po_0p35 l=11
X125 avdd.t6 a_3522_518# avss.t30 sky130_fd_pr__res_xhigh_po_0p35 l=11
X126 a_11138_9768# a_10972_7168# avss.t29 sky130_fd_pr__res_xhigh_po_0p35 l=11
X127 a_2982_4700.t1 a_5862_4788# a_6702_5653# avdd.t23 sky130_fd_pr__pfet_g5v0d10v5 ad=0.1218 pd=1.42 as=0.1218 ps=1.42 w=0.42 l=0.5
X128 a_7340_3118# a_7506_518# avss.t81 sky130_fd_pr__res_xhigh_po_0p35 l=11
X129 a_6012_3118# a_6178_518# avss.t28 sky130_fd_pr__res_xhigh_po_0p35 l=11
X130 a_3834_9768# a_4000_7168# avss.t150 sky130_fd_pr__res_xhigh_po_0p35 l=11
X131 a_9146_9768# a_9312_7168# avss.t87 sky130_fd_pr__res_xhigh_po_0p35 l=11
X132 a_9996_3118# a_9830_518# avss.t154 sky130_fd_pr__res_xhigh_po_0p35 l=11
X133 a_4684_3118# a_4518_518# avss.t163 sky130_fd_pr__res_xhigh_po_0p35 l=11
X134 a_5862_4788# a_5306_4788.t3 a_6086_5653# avdd.t37 sky130_fd_pr__pfet_g5v0d10v5 ad=0.1218 pd=1.42 as=0.1218 ps=1.42 w=0.42 l=0.5
X135 a_10992_3118# a_10826_518# avss.t78 sky130_fd_pr__res_xhigh_po_0p35 l=11
X136 a_8336_3118# a_8502_518# avss.t162 sky130_fd_pr__res_xhigh_po_0p35 l=11
X137 a_6158_9768# a_5992_7168# avss.t153 sky130_fd_pr__res_xhigh_po_0p35 l=11
X138 a_5306_4788.t0 a_4750_4788.t4 a_5148_4788# avss.t74 sky130_fd_pr__nfet_g5v0d10v5 ad=0.1218 pd=1.42 as=0.1218 ps=1.42 w=0.42 l=0.5
X139 a_7008_3118# a_7174_518# avss.t161 sky130_fd_pr__res_xhigh_po_0p35 l=11
X140 a_7718_4786# a_2982_4700.t3 dvdd.t0 avdd.t32 sky130_fd_pr__pfet_g5v0d10v5 ad=0.1218 pd=1.42 as=0.1218 ps=1.42 w=0.42 l=0.5
X141 a_4592_4788# a_1414_4786.t8 avss.t152 avss.t80 sky130_fd_pr__nfet_g5v0d10v5 ad=0.1218 pd=1.42 as=0.1218 ps=1.42 w=0.42 l=0.5
X142 a_5862_4788# a_5306_4788.t4 a_5704_4788# avss.t72 sky130_fd_pr__nfet_g5v0d10v5 ad=0.1218 pd=1.42 as=0.1218 ps=1.42 w=0.42 l=0.5
X143 a_846_9768# a_680_7168# avss.t160 sky130_fd_pr__res_xhigh_po_0p35 l=11
X144 a_8814_9768# a_8980_7168# avss.t159 sky130_fd_pr__res_xhigh_po_0p35 l=11
X145 a_5680_3118# a_5514_518# avss.t71 sky130_fd_pr__res_xhigh_po_0p35 l=11
X146 a_2838_9768# a_3004_7168# avss.t69 sky130_fd_pr__res_xhigh_po_0p35 l=11
X147 avdd.t28 rc_osc_level_shifter_0.out_h.t5 a_8714_4659# avdd.t27 sky130_fd_pr__pfet_g5v0d10v5 ad=0.1218 pd=1.42 as=0.1218 ps=1.42 w=0.42 l=0.5
X148 a_8150_9768# a_8316_7168# avss.t149 sky130_fd_pr__res_xhigh_po_0p35 l=11
X149 a_3638_4788.t0 a_3082_4788.t4 a_3480_4788# avss.t17 sky130_fd_pr__nfet_g5v0d10v5 ad=0.1218 pd=1.42 as=0.1218 ps=1.42 w=0.42 l=0.5
X150 a_2526_4188# a_1414_4786.t9 avss.t22 avss.t21 sky130_fd_pr__nfet_g5v0d10v5 ad=0.1218 pd=1.42 as=0.1218 ps=1.42 w=0.42 l=0.5
X151 a_8004_3118# a_8170_518# avss.t86 sky130_fd_pr__res_xhigh_po_0p35 l=11
X152 a_2924_4788# a_1414_4786.t10 avss.t97 avss.t25 sky130_fd_pr__nfet_g5v0d10v5 ad=0.1218 pd=1.42 as=0.1218 ps=1.42 w=0.42 l=0.5
X153 a_11470_9768# a_11304_7168# avss.t157 sky130_fd_pr__res_xhigh_po_0p35 l=11
X154 a_9482_5327# rc_osc_level_shifter_0.outb_h.t4 avdd.t26 avdd.t25 sky130_fd_pr__pfet_g5v0d10v5 ad=0.1218 pd=1.42 as=0.1218 ps=1.42 w=0.42 l=0.5
X155 a_2506_9768# a_2672_7168# avss.t137 sky130_fd_pr__res_xhigh_po_0p35 l=11
X156 a_7818_9768# a_7984_7168# avss.t19 sky130_fd_pr__res_xhigh_po_0p35 l=11
X157 a_11890_5939# ena.t6 dout.t1 dvss.t2 sky130_fd_pr__nfet_01v8 ad=0.145 pd=1.58 as=0.145 ps=1.58 w=0.5 l=0.15
X158 a_1842_9768# a_2008_7168# avss.t98 sky130_fd_pr__res_xhigh_po_0p35 l=11
X159 a_6676_3118# a_6510_518# avss.t148 sky130_fd_pr__res_xhigh_po_0p35 l=11
X160 a_6490_9768# a_6324_7168# avss.t12 sky130_fd_pr__res_xhigh_po_0p35 l=11
X161 avdd.t14 a_1198_518# avss.t63 sky130_fd_pr__res_xhigh_po_0p35 l=11
X162 a_4830_9768# a_4664_7168# avss.t151 sky130_fd_pr__res_xhigh_po_0p35 l=11
X163 a_9000_3118# a_9166_518# avss.t158 sky130_fd_pr__res_xhigh_po_0p35 l=11
X164 a_10474_9768# a_10308_7168# avss.t123 sky130_fd_pr__res_xhigh_po_0p35 l=11
X165 a_9996_3118# a_10162_518# avss.t103 sky130_fd_pr__res_xhigh_po_0p35 l=11
X166 a_1510_9768# a_1676_7168# avss.t11 sky130_fd_pr__res_xhigh_po_0p35 l=11
X167 a_4194_4788.t3 avss.t43 sky130_fd_pr__cap_mim_m3_1 l=6 w=3
X168 a_7672_3118# a_7506_518# avss.t10 sky130_fd_pr__res_xhigh_po_0p35 l=11
X169 a_514_9768# a_514_7168.t1 avss.t122 sky130_fd_pr__res_xhigh_po_0p35 l=11
X170 a_6822_9768# a_6988_7168# avss.t102 sky130_fd_pr__res_xhigh_po_0p35 l=11
X171 a_4750_4788.t0 a_4194_4788.t4 a_4592_4788# avss.t80 sky130_fd_pr__nfet_g5v0d10v5 ad=0.1218 pd=1.42 as=0.1218 ps=1.42 w=0.42 l=0.5
X172 avdd.t2 a_2194_518# avss.t9 sky130_fd_pr__res_xhigh_po_0p35 l=11
X173 a_5494_9768# a_5328_7168# avss.t47 sky130_fd_pr__res_xhigh_po_0p35 l=11
X174 a_2526_4188# rc_osc_level_shifter_0.out_h.t6 a_2368_4788.t1 avss.t21 sky130_fd_pr__nfet_g5v0d10v5 ad=0.1218 pd=1.42 as=0.1218 ps=1.42 w=0.42 l=0.5
X175 a_3834_9768# a_3668_7168# avss.t8 sky130_fd_pr__res_xhigh_po_0p35 l=11
X176 a_3082_4788.t0 a_2982_4700.t4 a_2924_4788# avss.t25 sky130_fd_pr__nfet_g5v0d10v5 ad=0.1218 pd=1.42 as=0.1218 ps=1.42 w=0.42 l=0.5
X177 avdd.t36 a_534_518# avss.t118 sky130_fd_pr__res_xhigh_po_0p35 l=11
X178 a_1414_4786.t2 a_1414_4786.t1 avss.t6 avss.t5 sky130_fd_pr__nfet_g5v0d10v5 ad=0.1218 pd=1.42 as=0.1218 ps=1.42 w=0.42 l=0.5
X179 a_7560_4786# a_2982_4700.t5 avss.t24 avss.t23 sky130_fd_pr__nfet_g5v0d10v5 ad=0.1218 pd=1.42 as=0.1218 ps=1.42 w=0.42 l=0.5
X180 a_2174_9768# a_2340_7168# avss.t7 sky130_fd_pr__res_xhigh_po_0p35 l=11
X181 a_7486_9768# a_7652_7168# avss.t46 sky130_fd_pr__res_xhigh_po_0p35 l=11
X182 a_10992_3118# a_11158_518# avss.t4 sky130_fd_pr__res_xhigh_po_0p35 l=11
X183 a_8668_3118# a_8502_518# avss.t3 sky130_fd_pr__res_xhigh_po_0p35 l=11
X184 avdd.t41 a_3190_518# avss.t131 sky130_fd_pr__res_xhigh_po_0p35 l=11
X185 a_4036_4788# a_1414_4786.t11 avss.t2 avss.t1 sky130_fd_pr__nfet_g5v0d10v5 ad=0.1218 pd=1.42 as=0.1218 ps=1.42 w=0.42 l=0.5
X186 a_11470_9768# a_11636_7168# avss.t107 sky130_fd_pr__res_xhigh_po_0p35 l=11
X187 a_2838_9768# a_2672_7168# avss.t106 sky130_fd_pr__res_xhigh_po_0p35 l=11
X188 a_4498_9768# a_4332_7168# avss.t105 sky130_fd_pr__res_xhigh_po_0p35 l=11
X189 a_9810_9768# a_9644_7168# avss.t62 sky130_fd_pr__res_xhigh_po_0p35 l=11
X190 avdd.t3 a_1862_518# avss.t18 sky130_fd_pr__res_xhigh_po_0p35 l=11
X191 a_9664_3118# a_9498_518# avss.t27 sky130_fd_pr__res_xhigh_po_0p35 l=11
X192 a_10142_9768# a_9976_7168# avss.t26 sky130_fd_pr__res_xhigh_po_0p35 l=11
R0 avss.n269 avss.n3 42418.7
R1 avss.n348 avss.n3 42418.7
R2 avss.n348 avss.n4 42418.7
R3 avss.n269 avss.n4 42418.7
R4 avss.n36 avss.n28 42418.7
R5 avss.n322 avss.n28 42418.7
R6 avss.n322 avss.n29 42418.7
R7 avss.n36 avss.n29 42418.7
R8 avss.n300 avss.n299 4540.48
R9 avss.n324 avss.n323 3194
R10 avss.n301 avss.n39 1379.81
R11 avss.n301 avss.n40 1379.81
R12 avss.n314 avss.n40 1379.81
R13 avss.n314 avss.n39 1379.81
R14 avss.n346 avss.n5 1379.81
R15 avss.n346 avss.n6 1379.81
R16 avss.n326 avss.n6 1379.81
R17 avss.n326 avss.n5 1379.81
R18 avss.n331 avss.n22 1379.81
R19 avss.n332 avss.n22 1379.81
R20 avss.n332 avss.n21 1379.81
R21 avss.n331 avss.n21 1379.81
R22 avss.n215 avss.n214 1379.81
R23 avss.n220 avss.n215 1379.81
R24 avss.n221 avss.n220 1379.81
R25 avss.n221 avss.n214 1379.81
R26 avss.n235 avss.n105 1379.81
R27 avss.n234 avss.n105 1379.81
R28 avss.n234 avss.n104 1379.81
R29 avss.n235 avss.n104 1379.81
R30 avss.n240 avss.n98 1379.81
R31 avss.n241 avss.n98 1379.81
R32 avss.n241 avss.n97 1379.81
R33 avss.n240 avss.n97 1379.81
R34 avss.n189 avss.n182 1379.81
R35 avss.n182 avss.n123 1379.81
R36 avss.n178 avss.n123 1379.81
R37 avss.n189 avss.n178 1379.81
R38 avss.n253 avss.n81 1379.81
R39 avss.n252 avss.n81 1379.81
R40 avss.n252 avss.n80 1379.81
R41 avss.n253 avss.n80 1379.81
R42 avss.n258 avss.n74 1379.81
R43 avss.n259 avss.n74 1379.81
R44 avss.n259 avss.n73 1379.81
R45 avss.n258 avss.n73 1379.81
R46 avss.n162 avss.n140 1379.81
R47 avss.n140 avss.n135 1379.81
R48 avss.n136 avss.n135 1379.81
R49 avss.n162 avss.n136 1379.81
R50 avss.n156 avss.n57 1379.81
R51 avss.n156 avss.n58 1379.81
R52 avss.n288 avss.n58 1379.81
R53 avss.n288 avss.n57 1379.81
R54 avss.n290 avss.n49 1379.81
R55 avss.n290 avss.n50 1379.81
R56 avss.n297 avss.n50 1379.81
R57 avss.n297 avss.n49 1379.81
R58 avss.n202 avss.n18 1379.81
R59 avss.n202 avss.n23 1379.81
R60 avss.n217 avss.n23 1379.81
R61 avss.n217 avss.n18 1379.81
R62 avss.n216 avss.n200 1379.81
R63 avss.n216 avss.n208 1379.81
R64 avss.n223 avss.n208 1379.81
R65 avss.n223 avss.n200 1379.81
R66 avss.n209 avss.n106 1379.81
R67 avss.n209 avss.n107 1379.81
R68 avss.n114 avss.n107 1379.81
R69 avss.n114 avss.n106 1379.81
R70 avss.n117 avss.n95 1379.81
R71 avss.n117 avss.n99 1379.81
R72 avss.n179 avss.n99 1379.81
R73 avss.n179 avss.n95 1379.81
R74 avss.n122 avss.n121 1379.81
R75 avss.n190 avss.n121 1379.81
R76 avss.n190 avss.n120 1379.81
R77 avss.n122 avss.n120 1379.81
R78 avss.n175 avss.n82 1379.81
R79 avss.n175 avss.n83 1379.81
R80 avss.n126 avss.n83 1379.81
R81 avss.n126 avss.n82 1379.81
R82 avss.n129 avss.n71 1379.81
R83 avss.n129 avss.n75 1379.81
R84 avss.n137 avss.n75 1379.81
R85 avss.n137 avss.n71 1379.81
R86 avss.n134 avss.n133 1379.81
R87 avss.n163 avss.n133 1379.81
R88 avss.n163 avss.n132 1379.81
R89 avss.n134 avss.n132 1379.81
R90 avss.n152 avss.n62 1379.81
R91 avss.n152 avss.n144 1379.81
R92 avss.n144 avss.n56 1379.81
R93 avss.n62 avss.n56 1379.81
R94 avss.n292 avss.n54 1379.81
R95 avss.n55 avss.n54 1379.81
R96 avss.n55 avss.n48 1379.81
R97 avss.n292 avss.n48 1379.81
R98 avss.n308 avss.n45 1379.81
R99 avss.n310 avss.n44 1379.81
R100 avss.n310 avss.n45 1379.81
R101 avss.t120 avss.n35 934.398
R102 avss.n300 avss.t41 934.398
R103 avss.n321 avss.n30 812.683
R104 avss.n270 avss.n2 804.212
R105 avss.n349 avss.n2 800.46
R106 avss.n31 avss.n30 789.457
R107 avss.n315 avss.n38 697.509
R108 avss.n321 avss.n320 691.125
R109 avss.n271 avss.n268 665.563
R110 avss.n309 avss.n44 562.854
R111 avss.n316 avss.n35 552.742
R112 avss.n319 avss.n31 460.964
R113 avss.n350 avss.n1 360.981
R114 avss.n320 avss.n319 326.962
R115 avss.n267 avss.n1 307.827
R116 avss.n316 avss.n315 236.889
R117 avss.t41 avss.n38 236.889
R118 avss.n64 avss.t24 235.553
R119 avss.n343 avss.t101 234.381
R120 avss.n283 avss.t77 234.012
R121 avss.n264 avss.t73 234.012
R122 avss.n87 avss.t75 234.012
R123 avss.n249 avss.t152 234.012
R124 avss.n246 avss.t2 234.012
R125 avss.n227 avss.t70 234.012
R126 avss.n231 avss.t97 234.012
R127 avss.n337 avss.t22 234.012
R128 avss.n19 avss.t6 233.994
R129 avss.n46 avss.t121 233.939
R130 avss.n33 avss.t42 233.929
R131 avss.t166 avss.t37 213.194
R132 avss.t37 avss.t119 213.194
R133 avss.t119 avss.t4 213.194
R134 avss.t4 avss.t78 213.194
R135 avss.t78 avss.t66 213.194
R136 avss.t66 avss.t0 213.194
R137 avss.t0 avss.t134 213.194
R138 avss.t134 avss.t85 213.194
R139 avss.t85 avss.t103 213.194
R140 avss.t103 avss.t154 213.194
R141 avss.t154 avss.t95 213.194
R142 avss.t157 avss.t107 212.946
R143 avss.t116 avss.t157 212.946
R144 avss.t29 avss.t116 212.946
R145 avss.t124 avss.t29 212.946
R146 avss.t165 avss.t124 212.946
R147 avss.t51 avss.t165 212.946
R148 avss.t123 avss.t51 212.946
R149 avss.t48 avss.t123 212.946
R150 avss.t26 avss.t48 212.946
R151 avss.t13 avss.t26 212.946
R152 avss.t62 avss.t13 212.946
R153 avss.t65 avss.t62 204.929
R154 avss.t95 avss.t27 204.137
R155 avss.n269 avss.t166 202.793
R156 avss.t107 avss.n36 202.572
R157 avss.t68 avss.t65 197.994
R158 avss.t87 avss.t68 197.994
R159 avss.t15 avss.t87 197.994
R160 avss.t159 avss.t15 197.994
R161 avss.t93 avss.t82 197.994
R162 avss.t82 avss.t129 197.994
R163 avss.t129 avss.t149 197.994
R164 avss.t149 avss.t64 197.994
R165 avss.t64 avss.t19 197.994
R166 avss.t19 avss.t125 197.994
R167 avss.t125 avss.t46 197.994
R168 avss.t46 avss.t34 197.994
R169 avss.t34 avss.t143 197.994
R170 avss.t143 avss.t127 197.994
R171 avss.t127 avss.t102 197.964
R172 avss.t102 avss.t35 197.94
R173 avss.t35 avss.t138 197.94
R174 avss.t138 avss.t12 197.94
R175 avss.t12 avss.t113 197.94
R176 avss.t113 avss.t153 197.94
R177 avss.t60 avss.t83 197.94
R178 avss.t83 avss.t36 197.94
R179 avss.t36 avss.t47 197.94
R180 avss.t47 avss.t54 197.94
R181 avss.t54 avss.t147 197.94
R182 avss.t147 avss.t53 197.94
R183 avss.t53 avss.t151 197.94
R184 avss.t151 avss.t49 197.94
R185 avss.t49 avss.t105 197.94
R186 avss.t105 avss.t99 197.94
R187 avss.t99 avss.t56 197.94
R188 avss.t56 avss.t150 197.94
R189 avss.t150 avss.t8 197.94
R190 avss.t8 avss.t140 197.94
R191 avss.t140 avss.t142 197.94
R192 avss.t142 avss.t128 197.94
R193 avss.t128 avss.t135 197.94
R194 avss.t135 avss.t69 197.94
R195 avss.t69 avss.t106 197.94
R196 avss.t106 avss.t137 197.94
R197 avss.t137 avss.t115 197.94
R198 avss.t115 avss.t7 197.94
R199 avss.t7 avss.t84 197.94
R200 avss.t84 avss.t98 197.94
R201 avss.t98 avss.t110 197.94
R202 avss.t110 avss.t11 197.94
R203 avss.t11 avss.t164 197.94
R204 avss.t164 avss.t94 197.94
R205 avss.t32 avss.t55 197.94
R206 avss.t55 avss.t160 197.94
R207 avss.t160 avss.t38 197.94
R208 avss.t38 avss.t122 197.94
R209 avss.t27 avss.t20 191.405
R210 avss.t20 avss.t141 191.405
R211 avss.t141 avss.t158 191.405
R212 avss.t158 avss.t155 191.405
R213 avss.t155 avss.t136 191.405
R214 avss.t136 avss.t3 191.405
R215 avss.t3 avss.t162 191.405
R216 avss.t122 avss.n322 189.195
R217 avss.n38 avss.t159 163.405
R218 avss.n323 avss.t94 146.667
R219 avss.n293 avss.n292 146.25
R220 avss.n292 avss.t23 146.25
R221 avss.n146 avss.n55 146.25
R222 avss.t23 avss.n55 146.25
R223 avss.n285 avss.n62 146.25
R224 avss.t76 avss.n62 146.25
R225 avss.n149 avss.n144 146.25
R226 avss.n144 avss.t76 146.25
R227 avss.n134 avss.n66 146.25
R228 avss.t72 avss.n134 146.25
R229 avss.n164 avss.n163 146.25
R230 avss.n163 avss.t72 146.25
R231 avss.n260 avss.n71 146.25
R232 avss.t74 avss.n71 146.25
R233 avss.n167 avss.n75 146.25
R234 avss.t74 avss.n75 146.25
R235 avss.n251 avss.n82 146.25
R236 avss.t80 avss.n82 146.25
R237 avss.n170 avss.n83 146.25
R238 avss.t80 avss.n83 146.25
R239 avss.n122 avss.n90 146.25
R240 avss.t1 avss.n122 146.25
R241 avss.n191 avss.n190 146.25
R242 avss.n190 avss.t1 146.25
R243 avss.n242 avss.n95 146.25
R244 avss.t17 avss.n95 146.25
R245 avss.n194 avss.n99 146.25
R246 avss.t17 avss.n99 146.25
R247 avss.n233 avss.n106 146.25
R248 avss.t25 avss.n106 146.25
R249 avss.n197 avss.n107 146.25
R250 avss.t25 avss.n107 146.25
R251 avss.n200 avss.n13 146.25
R252 avss.t21 avss.n200 146.25
R253 avss.n208 avss.n207 146.25
R254 avss.t21 avss.n208 146.25
R255 avss.n333 avss.n18 146.25
R256 avss.t5 avss.n18 146.25
R257 avss.n204 avss.n23 146.25
R258 avss.t5 avss.n23 146.25
R259 avss.n295 avss.n49 146.25
R260 avss.t23 avss.n49 146.25
R261 avss.n293 avss.n50 146.25
R262 avss.t23 avss.n50 146.25
R263 avss.n61 avss.n57 146.25
R264 avss.t76 avss.n57 146.25
R265 avss.n285 avss.n58 146.25
R266 avss.t76 avss.n58 146.25
R267 avss.n162 avss.n161 146.25
R268 avss.t72 avss.n162 146.25
R269 avss.n135 avss.n66 146.25
R270 avss.t72 avss.n135 146.25
R271 avss.n258 avss.n257 146.25
R272 avss.t74 avss.n258 146.25
R273 avss.n260 avss.n259 146.25
R274 avss.n259 avss.t74 146.25
R275 avss.n254 avss.n253 146.25
R276 avss.n253 avss.t80 146.25
R277 avss.n252 avss.n251 146.25
R278 avss.t80 avss.n252 146.25
R279 avss.n189 avss.n188 146.25
R280 avss.t1 avss.n189 146.25
R281 avss.n123 avss.n90 146.25
R282 avss.t1 avss.n123 146.25
R283 avss.n240 avss.n239 146.25
R284 avss.t17 avss.n240 146.25
R285 avss.n242 avss.n241 146.25
R286 avss.n241 avss.t17 146.25
R287 avss.n236 avss.n235 146.25
R288 avss.n235 avss.t25 146.25
R289 avss.n234 avss.n233 146.25
R290 avss.t25 avss.n234 146.25
R291 avss.n214 avss.n213 146.25
R292 avss.t21 avss.n214 146.25
R293 avss.n220 avss.n13 146.25
R294 avss.n220 avss.t21 146.25
R295 avss.n331 avss.n330 146.25
R296 avss.t5 avss.n331 146.25
R297 avss.n333 avss.n332 146.25
R298 avss.n332 avss.t5 146.25
R299 avss.n7 avss.n5 146.25
R300 avss.t100 avss.n5 146.25
R301 avss.n8 avss.n6 146.25
R302 avss.t100 avss.n6 146.25
R303 avss.n304 avss.n39 146.25
R304 avss.t41 avss.n39 146.25
R305 avss.n42 avss.n40 146.25
R306 avss.t41 avss.n40 146.25
R307 avss.n311 avss.n310 146.25
R308 avss.n310 avss.t120 146.25
R309 avss.n308 avss.n307 146.25
R310 avss.t86 avss.t133 145.094
R311 avss.t10 avss.t14 145.094
R312 avss.t16 avss.t161 145.094
R313 avss.t161 avss.t58 145.094
R314 avss.t58 avss.t111 145.094
R315 avss.t111 avss.t148 145.094
R316 avss.t114 avss.t132 145.094
R317 avss.t40 avss.t31 145.094
R318 avss.t67 avss.t163 145.094
R319 avss.t131 avss.t109 145.094
R320 avss.t104 avss.t52 145.094
R321 avss.t108 avss.t18 145.094
R322 avss.t92 avss.t63 145.094
R323 avss.t88 avss.t45 145.094
R324 avss.t130 avss.t88 145.094
R325 avss.t118 avss.t130 145.094
R326 avss.n348 avss.t118 142.078
R327 avss.t133 avss.n298 138.101
R328 avss.t162 avss.t90 136.425
R329 avss.t76 avss.t28 135.48
R330 avss.t80 avss.t39 128.487
R331 avss.n153 avss.t112 125.865
R332 avss.t5 avss.t91 124.99
R333 avss.t25 avss.t145 121.495
R334 avss.n177 avss.t79 118.873
R335 avss.t17 avss.t30 117.999
R336 avss.n145 avss.n48 117.207
R337 avss.n298 avss.n48 117.001
R338 avss.n54 avss.n52 117.001
R339 avss.n291 avss.n54 117.001
R340 avss.n59 avss.n56 117.001
R341 avss.n289 avss.n56 117.001
R342 avss.n152 avss.n151 117.001
R343 avss.n155 avss.n152 117.001
R344 avss.n141 avss.n132 117.001
R345 avss.n153 avss.n132 117.001
R346 avss.n133 avss.n68 117.001
R347 avss.n139 avss.n133 117.001
R348 avss.n137 avss.n70 117.001
R349 avss.n138 avss.n137 117.001
R350 avss.n130 avss.n129 117.001
R351 avss.n129 avss.n128 117.001
R352 avss.n126 avss.n124 117.001
R353 avss.n127 avss.n126 117.001
R354 avss.n175 avss.n174 117.001
R355 avss.n176 avss.n175 117.001
R356 avss.n183 avss.n120 117.001
R357 avss.n177 avss.n120 117.001
R358 avss.n121 avss.n92 117.001
R359 avss.n181 avss.n121 117.001
R360 avss.n179 avss.n94 117.001
R361 avss.n180 avss.n179 117.001
R362 avss.n118 avss.n117 117.001
R363 avss.n117 avss.n116 117.001
R364 avss.n114 avss.n112 117.001
R365 avss.n115 avss.n114 117.001
R366 avss.n209 avss.n110 117.001
R367 avss.n210 avss.n209 117.001
R368 avss.n224 avss.n223 117.001
R369 avss.n223 avss.n222 117.001
R370 avss.n216 avss.n15 117.001
R371 avss.n219 avss.n216 117.001
R372 avss.n217 avss.n17 117.001
R373 avss.n218 avss.n217 117.001
R374 avss.n203 avss.n202 117.001
R375 avss.n202 avss.n27 117.001
R376 avss.n297 avss.n296 117.001
R377 avss.n298 avss.n297 117.001
R378 avss.n290 avss.n53 117.001
R379 avss.n291 avss.n290 117.001
R380 avss.n288 avss.n287 117.001
R381 avss.n289 avss.n288 117.001
R382 avss.n157 avss.n156 117.001
R383 avss.n156 avss.n155 117.001
R384 avss.n143 avss.n136 117.001
R385 avss.n153 avss.n136 117.001
R386 avss.n140 avss.n67 117.001
R387 avss.n140 avss.n139 117.001