* NGSPICE file created from sky130_ef_ip__rc_osc_500k.ext - technology: sky130A

.subckt sky130_ef_ip__rc_osc_500k dout ena dvss dvdd avdd avss
X0 a_1178_9768# a_1344_7168# avss.t81 sky130_fd_pr__res_xhigh_po_0p35 l=11
X1 a_10660_3118# a_10494_518# avss.t152 sky130_fd_pr__res_xhigh_po_0p35 l=11
X2 a_4352_3118# a_4186_518# avss.t144 sky130_fd_pr__res_xhigh_po_0p35 l=11
X3 a_6490_9768# a_6656_7168# avss.t140 sky130_fd_pr__res_xhigh_po_0p35 l=11
X4 a_3502_9768# a_3336_7168# avss.t32 sky130_fd_pr__res_xhigh_po_0p35 l=11
X5 a_5162_9768# a_4996_7168# avss.t50 sky130_fd_pr__res_xhigh_po_0p35 l=11
X6 a_8814_9768# a_8648_7168# avss.t78 sky130_fd_pr__res_xhigh_po_0p35 l=11
X7 a_2692_3118# a_2858_518# avss.t73 sky130_fd_pr__res_xhigh_po_0p35 l=11
X8 a_7718_4786# ena.t0 a_7560_4786# avss.t98 sky130_fd_pr__nfet_g5v0d10v5 ad=0.1218 pd=1.42 as=0.1218 ps=1.42 w=0.42 l=0.5
X9 a_7154_9768# a_7320_7168# avss.t97 sky130_fd_pr__res_xhigh_po_0p35 l=11
X10 a_5348_3118# a_5182_518# avss.t153 sky130_fd_pr__res_xhigh_po_0p35 l=11
X11 a_11636_7168# a_11490_518# avss.t58 sky130_fd_pr__res_xhigh_po_0p35 l=11
X12 a_4166_9768# a_4000_7168# avss.t22 sky130_fd_pr__res_xhigh_po_0p35 l=11
X13 a_11138_9768# a_11304_7168# avss.t154 sky130_fd_pr__res_xhigh_po_0p35 l=11
X14 a_4194_4788# a_3638_4788# a_4036_4788# avss.t2 sky130_fd_pr__nfet_g5v0d10v5 ad=0.1218 pd=1.42 as=0.1218 ps=1.42 w=0.42 l=0.5
X15 a_3688_3118# a_3854_518# avss.t24 sky130_fd_pr__res_xhigh_po_0p35 l=11
X16 a_2506_9768# a_2340_7168# avss.t94 sky130_fd_pr__res_xhigh_po_0p35 l=11
X17 a_9478_9768# a_9312_7168# avss.t108 sky130_fd_pr__res_xhigh_po_0p35 l=11
X18 a_7818_9768# a_7652_7168# avss.t76 sky130_fd_pr__res_xhigh_po_0p35 l=11
X19 a_6344_3118# a_6178_518# avss.t63 sky130_fd_pr__res_xhigh_po_0p35 l=11
X20 avdd.t15 a_2368_4788# a_2368_4788# avdd.t14 sky130_fd_pr__pfet_g5v0d10v5 ad=0.1218 pd=1.42 as=0.1218 ps=1.42 w=0.42 l=0.5
X21 a_1032_3118# a_866_518# avss.t23 sky130_fd_pr__res_xhigh_po_0p35 l=11
X22 a_846_9768# a_1012_7168# avss.t53 sky130_fd_pr__res_xhigh_po_0p35 l=11
X23 a_6158_9768# a_6324_7168# avss.t107 sky130_fd_pr__res_xhigh_po_0p35 l=11
X24 a_4684_3118# a_4850_518# avss.t43 sky130_fd_pr__res_xhigh_po_0p35 l=11
X25 a_10806_9768# a_10972_7168# avss.t68 sky130_fd_pr__res_xhigh_po_0p35 l=11
X26 avss.t100 ena.t1 level_shifter_0.outb_h avss.t99 sky130_fd_pr__nfet_g5v0d10v5 ad=0.1218 pd=1.42 as=0.1218 ps=1.42 w=0.42 l=0.5
X27 a_10142_9768# a_10308_7168# avss.t25 sky130_fd_pr__res_xhigh_po_0p35 l=11
X28 a_7340_3118# a_7174_518# avss.t20 sky130_fd_pr__res_xhigh_po_0p35 l=11
X29 avdd.t13 a_2368_4788# a_4854_5653# avdd.t12 sky130_fd_pr__pfet_g5v0d10v5 ad=0.1218 pd=1.42 as=0.1218 ps=1.42 w=0.42 l=0.5
X30 a_5826_9768# a_5992_7168# avss.t79 sky130_fd_pr__res_xhigh_po_0p35 l=11
X31 a_5162_9768# a_5328_7168# avss.t82 sky130_fd_pr__res_xhigh_po_0p35 l=11
X32 avdd.t11 a_2368_4788# a_5470_5653# avdd.t10 sky130_fd_pr__pfet_g5v0d10v5 ad=0.1218 pd=1.42 as=0.1218 ps=1.42 w=0.42 l=0.5
X33 a_2028_3118# a_1862_518# avss.t47 sky130_fd_pr__res_xhigh_po_0p35 l=11
X34 a_5680_3118# a_5846_518# avss.t84 sky130_fd_pr__res_xhigh_po_0p35 l=11
X35 a_9146_9768# a_8980_7168# avss.t141 sky130_fd_pr__res_xhigh_po_0p35 l=11
X36 a_8336_3118# a_8170_518# avss.t35 sky130_fd_pr__res_xhigh_po_0p35 l=11
X37 a_4830_9768# a_4996_7168# avss.t60 sky130_fd_pr__res_xhigh_po_0p35 l=11
X38 a_3024_3118# a_2858_518# avss.t83 sky130_fd_pr__res_xhigh_po_0p35 l=11
X39 a_6676_3118# a_6842_518# avss.t1 sky130_fd_pr__res_xhigh_po_0p35 l=11
X40 a_1364_3118# a_1530_518# avss.t114 sky130_fd_pr__res_xhigh_po_0p35 l=11
X41 a_10474_9768# a_10640_7168# avss.t49 sky130_fd_pr__res_xhigh_po_0p35 l=11
X42 a_1842_9768# a_1676_7168# avss.t89 sky130_fd_pr__res_xhigh_po_0p35 l=11
X43 a_9332_3118# a_9166_518# avss.t27 sky130_fd_pr__res_xhigh_po_0p35 l=11
X44 a_4020_3118# a_3854_518# avss.t77 sky130_fd_pr__res_xhigh_po_0p35 l=11
X45 avdd.t22 level_shifter_0.out_h a_2368_4788# avdd.t14 sky130_fd_pr__pfet_g5v0d10v5 ad=0.1218 pd=1.42 as=0.1218 ps=1.42 w=0.42 l=0.5
X46 a_3082_4788# avss.t44 sky130_fd_pr__cap_mim_m3_1 l=6 w=3
X47 dvdd.t6 ena.t2 level_shifter_0.inb_l dvdd.t5 sky130_fd_pr__pfet_01v8 ad=0.29 pd=2.58 as=0.29 ps=2.58 w=1 l=0.15
X48 a_5494_9768# a_5660_7168# avss.t163 sky130_fd_pr__res_xhigh_po_0p35 l=11
X49 a_4750_4788# a_4194_4788# a_4854_5653# avdd.t12 sky130_fd_pr__pfet_g5v0d10v5 ad=0.1218 pd=1.42 as=0.1218 ps=1.42 w=0.42 l=0.5
X50 a_10328_3118# a_10162_518# avss.t113 sky130_fd_pr__res_xhigh_po_0p35 l=11
X51 a_7672_3118# a_7838_518# avss.t80 sky130_fd_pr__res_xhigh_po_0p35 l=11
X52 a_1414_4786# level_shifter_0.outb_h avss.t30 avss.t29 sky130_fd_pr__nfet_g5v0d10v5 ad=0.1218 pd=1.42 as=0.1218 ps=1.42 w=0.42 l=0.5
X53 a_4750_4788# avss.t110 sky130_fd_pr__cap_mim_m3_1 l=6 w=3
X54 a_700_3118# a_534_518# avss.t62 sky130_fd_pr__res_xhigh_po_0p35 l=11
X55 a_2360_3118# a_2526_518# avss.t0 sky130_fd_pr__res_xhigh_po_0p35 l=11
X56 a_1414_4786# level_shifter_0.out_h a_514_7168# avss.t4 sky130_fd_pr__nfet_g5v0d10v5 ad=0.1218 pd=1.42 as=0.1218 ps=1.42 w=0.42 l=0.5
X57 a_1032_3118# a_1198_518# avss.t115 sky130_fd_pr__res_xhigh_po_0p35 l=11
X58 a_3638_4788# avss.t36 sky130_fd_pr__cap_mim_m3_1 l=6 w=3
X59 a_5306_4788# a_4750_4788# a_5470_5653# avdd.t10 sky130_fd_pr__pfet_g5v0d10v5 ad=0.1218 pd=1.42 as=0.1218 ps=1.42 w=0.42 l=0.5
X60 a_11324_3118# a_11158_518# avss.t95 sky130_fd_pr__res_xhigh_po_0p35 l=11
X61 a_5016_3118# a_4850_518# avss.t54 sky130_fd_pr__res_xhigh_po_0p35 l=11
X62 a_4498_9768# a_4664_7168# avss.t46 sky130_fd_pr__res_xhigh_po_0p35 l=11
X63 a_8668_3118# a_8834_518# avss.t70 sky130_fd_pr__res_xhigh_po_0p35 l=11
X64 a_9810_9768# a_9976_7168# avss.t105 sky130_fd_pr__res_xhigh_po_0p35 l=11
X65 avdd.t9 a_2368_4788# a_3622_5653# avdd.t8 sky130_fd_pr__pfet_g5v0d10v5 ad=0.1218 pd=1.42 as=0.1218 ps=1.42 w=0.42 l=0.5
X66 a_3356_3118# a_3522_518# avss.t66 sky130_fd_pr__res_xhigh_po_0p35 l=11
X67 a_2028_3118# a_2194_518# avss.t51 sky130_fd_pr__res_xhigh_po_0p35 l=11
X68 a_6260_4788# a_1414_4786# avss.t19 avss.t18 sky130_fd_pr__nfet_g5v0d10v5 ad=0.1218 pd=1.42 as=0.1218 ps=1.42 w=0.42 l=0.5
X69 a_5306_4788# avss.t164 sky130_fd_pr__cap_mim_m3_1 l=6 w=3
X70 a_3170_9768# a_3004_7168# avss.t160 sky130_fd_pr__res_xhigh_po_0p35 l=11
X71 a_6012_3118# a_5846_518# avss.t48 sky130_fd_pr__res_xhigh_po_0p35 l=11
X72 a_1510_9768# a_1344_7168# avss.t55 sky130_fd_pr__res_xhigh_po_0p35 l=11
X73 a_6822_9768# a_6656_7168# avss.t96 sky130_fd_pr__res_xhigh_po_0p35 l=11
X74 a_8482_9768# a_8316_7168# avss.t86 sky130_fd_pr__res_xhigh_po_0p35 l=11
X75 avdd.t7 a_2368_4788# a_3006_5653# avdd.t6 sky130_fd_pr__pfet_g5v0d10v5 ad=0.1218 pd=1.42 as=0.1218 ps=1.42 w=0.42 l=0.5
X76 a_9664_3118# a_9830_518# avss.t165 sky130_fd_pr__res_xhigh_po_0p35 l=11
X77 avdd.t5 a_2368_4788# a_4238_5653# avdd.t4 sky130_fd_pr__pfet_g5v0d10v5 ad=0.1218 pd=1.42 as=0.1218 ps=1.42 w=0.42 l=0.5
X78 dvss.t7 ena.t3 level_shifter_0.inb_l dvss.t6 sky130_fd_pr__nfet_01v8 ad=0.29 pd=2.58 as=0.29 ps=2.58 w=1 l=0.15
X79 a_10806_9768# a_10640_7168# avss.t57 sky130_fd_pr__res_xhigh_po_0p35 l=11
X80 a_9482_5327# level_shifter_0.out_h level_shifter_0.outb_h avdd.t21 sky130_fd_pr__pfet_g5v0d10v5 ad=0.1218 pd=1.42 as=0.1218 ps=1.42 w=0.42 l=0.5
X81 a_3024_3118# a_3190_518# avss.t166 sky130_fd_pr__res_xhigh_po_0p35 l=11
X82 a_3502_9768# a_3668_7168# avss.t106 sky130_fd_pr__res_xhigh_po_0p35 l=11
X83 avdd.t3 a_2368_4788# a_6702_5653# avdd.t2 sky130_fd_pr__pfet_g5v0d10v5 ad=0.1218 pd=1.42 as=0.1218 ps=1.42 w=0.42 l=0.5
X84 a_4352_3118# a_4518_518# avss.t109 sky130_fd_pr__res_xhigh_po_0p35 l=11
X85 a_2174_9768# a_2008_7168# avss.t52 sky130_fd_pr__res_xhigh_po_0p35 l=11
X86 a_7486_9768# a_7320_7168# avss.t150 sky130_fd_pr__res_xhigh_po_0p35 l=11
X87 a_10660_3118# a_10826_518# avss.t121 sky130_fd_pr__res_xhigh_po_0p35 l=11
X88 a_5826_9768# a_5660_7168# avss.t126 sky130_fd_pr__res_xhigh_po_0p35 l=11
X89 dout.t1 a_7718_4786# dvdd.t1 dvdd.t0 sky130_fd_pr__pfet_01v8 ad=0.29 pd=2.58 as=0.29 ps=2.58 w=1 l=0.15
X90 a_7008_3118# a_6842_518# avss.t127 sky130_fd_pr__res_xhigh_po_0p35 l=11
X91 a_1696_3118# a_1530_518# avss.t122 sky130_fd_pr__res_xhigh_po_0p35 l=11
X92 avdd.t1 a_2368_4788# a_6086_5653# avdd.t0 sky130_fd_pr__pfet_g5v0d10v5 ad=0.1218 pd=1.42 as=0.1218 ps=1.42 w=0.42 l=0.5
X93 a_9332_3118# a_9498_518# avss.t130 sky130_fd_pr__res_xhigh_po_0p35 l=11
X94 a_11890_5939# a_7718_4786# dvss.t3 dvss.t2 sky130_fd_pr__nfet_01v8 ad=0.145 pd=1.58 as=0.145 ps=1.58 w=0.5 l=0.15
D0 dvss.t5 ena.t4 sky130_fd_pr__diode_pw2nd_05v5 pj=1.8e+06 area=2.025e+11
X95 a_4166_9768# a_4332_7168# avss.t117 sky130_fd_pr__res_xhigh_po_0p35 l=11
X96 a_5348_3118# a_5514_518# avss.t119 sky130_fd_pr__res_xhigh_po_0p35 l=11
X97 a_4020_3118# a_4186_518# avss.t120 sky130_fd_pr__res_xhigh_po_0p35 l=11
X98 a_9478_9768# a_9644_7168# avss.t116 sky130_fd_pr__res_xhigh_po_0p35 l=11
X99 a_10328_3118# a_10494_518# avss.t129 sky130_fd_pr__res_xhigh_po_0p35 l=11
X100 a_514_9768# a_680_7168# avss.t136 sky130_fd_pr__res_xhigh_po_0p35 l=11
X101 level_shifter_0.out_h level_shifter_0.outb_h a_8714_4659# avdd.t18 sky130_fd_pr__pfet_g5v0d10v5 ad=0.1218 pd=1.42 as=0.1218 ps=1.42 w=0.42 l=0.5
X102 a_1178_9768# a_1012_7168# avss.t135 sky130_fd_pr__res_xhigh_po_0p35 l=11
X103 a_8004_3118# a_7838_518# avss.t138 sky130_fd_pr__res_xhigh_po_0p35 l=11
X104 a_2692_3118# a_2526_518# avss.t128 sky130_fd_pr__res_xhigh_po_0p35 l=11
X105 a_5148_4788# a_1414_4786# avss.t17 avss.t16 sky130_fd_pr__nfet_g5v0d10v5 ad=0.1218 pd=1.42 as=0.1218 ps=1.42 w=0.42 l=0.5
X106 a_2982_4700# a_5862_4788# a_6260_4788# avss.t18 sky130_fd_pr__nfet_g5v0d10v5 ad=0.1218 pd=1.42 as=0.1218 ps=1.42 w=0.42 l=0.5
X107 a_8150_9768# a_7984_7168# avss.t134 sky130_fd_pr__res_xhigh_po_0p35 l=11
X108 level_shifter_0.out_h level_shifter_0.inb_l avss.t75 avss.t74 sky130_fd_pr__nfet_g5v0d10v5 ad=0.1218 pd=1.42 as=0.1218 ps=1.42 w=0.42 l=0.5
X109 a_5704_4788# a_1414_4786# avss.t15 avss.t14 sky130_fd_pr__nfet_g5v0d10v5 ad=0.1218 pd=1.42 as=0.1218 ps=1.42 w=0.42 l=0.5
X110 a_6344_3118# a_6510_518# avss.t149 sky130_fd_pr__res_xhigh_po_0p35 l=11
X111 a_3638_4788# a_3082_4788# a_3622_5653# avdd.t8 sky130_fd_pr__pfet_g5v0d10v5 ad=0.1218 pd=1.42 as=0.1218 ps=1.42 w=0.42 l=0.5
X112 a_11324_3118# a_11490_518# avss.t137 sky130_fd_pr__res_xhigh_po_0p35 l=11
X113 a_5016_3118# a_5182_518# avss.t142 sky130_fd_pr__res_xhigh_po_0p35 l=11
X114 a_700_3118# a_866_518# avss.t125 sky130_fd_pr__res_xhigh_po_0p35 l=11
X115 a_9000_3118# a_8834_518# avss.t124 sky130_fd_pr__res_xhigh_po_0p35 l=11
X116 dvss.t1 level_shifter_0.inb_l dout.t0 dvss.t0 sky130_fd_pr__nfet_01v8 ad=0.1218 pd=1.42 as=0.1218 ps=1.42 w=0.42 l=0.15
X117 a_3480_4788# a_1414_4786# avss.t13 avss.t12 sky130_fd_pr__nfet_g5v0d10v5 ad=0.1218 pd=1.42 as=0.1218 ps=1.42 w=0.42 l=0.5
X118 a_3170_9768# a_3336_7168# avss.t143 sky130_fd_pr__res_xhigh_po_0p35 l=11
X119 a_8482_9768# a_8648_7168# avss.t118 sky130_fd_pr__res_xhigh_po_0p35 l=11
X120 a_3082_4788# a_2982_4700# a_3006_5653# avdd.t6 sky130_fd_pr__pfet_g5v0d10v5 ad=0.1218 pd=1.42 as=0.1218 ps=1.42 w=0.42 l=0.5
X121 a_4194_4788# a_3638_4788# a_4238_5653# avdd.t4 sky130_fd_pr__pfet_g5v0d10v5 ad=0.1218 pd=1.42 as=0.1218 ps=1.42 w=0.42 l=0.5
X122 dvdd.t4 ena.t5 a_7718_4786# dvdd.t3 sky130_fd_pr__pfet_01v8 ad=0.1218 pd=1.42 as=0.1218 ps=1.42 w=0.42 l=0.15
X123 a_7154_9768# a_6988_7168# avss.t146 sky130_fd_pr__res_xhigh_po_0p35 l=11
X124 a_3688_3118# a_3522_518# avss.t123 sky130_fd_pr__res_xhigh_po_0p35 l=11
X125 a_11138_9768# a_10972_7168# avss.t148 sky130_fd_pr__res_xhigh_po_0p35 l=11
X126 a_2982_4700# a_5862_4788# a_6702_5653# avdd.t2 sky130_fd_pr__pfet_g5v0d10v5 ad=0.1218 pd=1.42 as=0.1218 ps=1.42 w=0.42 l=0.5
X127 a_7340_3118# a_7506_518# avss.t90 sky130_fd_pr__res_xhigh_po_0p35 l=11
X128 a_6012_3118# a_6178_518# avss.t41 sky130_fd_pr__res_xhigh_po_0p35 l=11
X129 a_3834_9768# a_4000_7168# avss.t64 sky130_fd_pr__res_xhigh_po_0p35 l=11
X130 a_9146_9768# a_9312_7168# avss.t157 sky130_fd_pr__res_xhigh_po_0p35 l=11
X131 a_9996_3118# a_9830_518# avss.t69 sky130_fd_pr__res_xhigh_po_0p35 l=11
X132 a_4684_3118# a_4518_518# avss.t147 sky130_fd_pr__res_xhigh_po_0p35 l=11
X133 a_5862_4788# a_5306_4788# a_6086_5653# avdd.t0 sky130_fd_pr__pfet_g5v0d10v5 ad=0.1218 pd=1.42 as=0.1218 ps=1.42 w=0.42 l=0.5
X134 a_10992_3118# a_10826_518# avss.t93 sky130_fd_pr__res_xhigh_po_0p35 l=11
X135 a_8336_3118# a_8502_518# avss.t67 sky130_fd_pr__res_xhigh_po_0p35 l=11
X136 a_6158_9768# a_5992_7168# avss.t101 sky130_fd_pr__res_xhigh_po_0p35 l=11
X137 a_5306_4788# a_4750_4788# a_5148_4788# avss.t16 sky130_fd_pr__nfet_g5v0d10v5 ad=0.1218 pd=1.42 as=0.1218 ps=1.42 w=0.42 l=0.5
X138 a_7008_3118# a_7174_518# avss.t56 sky130_fd_pr__res_xhigh_po_0p35 l=11
X139 a_7718_4786# a_2982_4700# dvdd.t2 avdd.t23 sky130_fd_pr__pfet_g5v0d10v5 ad=0.1218 pd=1.42 as=0.1218 ps=1.42 w=0.42 l=0.5
X140 a_4592_4788# a_1414_4786# avss.t11 avss.t10 sky130_fd_pr__nfet_g5v0d10v5 ad=0.1218 pd=1.42 as=0.1218 ps=1.42 w=0.42 l=0.5
X141 a_5862_4788# a_5306_4788# a_5704_4788# avss.t14 sky130_fd_pr__nfet_g5v0d10v5 ad=0.1218 pd=1.42 as=0.1218 ps=1.42 w=0.42 l=0.5
X142 a_846_9768# a_680_7168# avss.t65 sky130_fd_pr__res_xhigh_po_0p35 l=11
X143 a_8814_9768# a_8980_7168# avss.t112 sky130_fd_pr__res_xhigh_po_0p35 l=11
X144 a_5680_3118# a_5514_518# avss.t85 sky130_fd_pr__res_xhigh_po_0p35 l=11
X145 a_2838_9768# a_3004_7168# avss.t102 sky130_fd_pr__res_xhigh_po_0p35 l=11
X146 avdd.t20 level_shifter_0.out_h a_8714_4659# avdd.t18 sky130_fd_pr__pfet_g5v0d10v5 ad=0.1218 pd=1.42 as=0.1218 ps=1.42 w=0.42 l=0.5
X147 a_8150_9768# a_8316_7168# avss.t139 sky130_fd_pr__res_xhigh_po_0p35 l=11
X148 a_3638_4788# a_3082_4788# a_3480_4788# avss.t12 sky130_fd_pr__nfet_g5v0d10v5 ad=0.1218 pd=1.42 as=0.1218 ps=1.42 w=0.42 l=0.5
X149 a_2526_4188# a_1414_4786# avss.t9 avss.t8 sky130_fd_pr__nfet_g5v0d10v5 ad=0.1218 pd=1.42 as=0.1218 ps=1.42 w=0.42 l=0.5
X150 a_8004_3118# a_8170_518# avss.t39 sky130_fd_pr__res_xhigh_po_0p35 l=11
X151 a_2924_4788# a_1414_4786# avss.t7 avss.t6 sky130_fd_pr__nfet_g5v0d10v5 ad=0.1218 pd=1.42 as=0.1218 ps=1.42 w=0.42 l=0.5
X152 a_11470_9768# a_11304_7168# avss.t159 sky130_fd_pr__res_xhigh_po_0p35 l=11
X153 a_9482_5327# level_shifter_0.outb_h avdd.t17 avdd.t16 sky130_fd_pr__pfet_g5v0d10v5 ad=0.1218 pd=1.42 as=0.1218 ps=1.42 w=0.42 l=0.5
X154 a_2506_9768# a_2672_7168# avss.t40 sky130_fd_pr__res_xhigh_po_0p35 l=11
X155 a_7818_9768# a_7984_7168# avss.t145 sky130_fd_pr__res_xhigh_po_0p35 l=11
X156 a_11890_5939# ena.t6 dout.t2 dvss.t4 sky130_fd_pr__nfet_01v8 ad=0.145 pd=1.58 as=0.145 ps=1.58 w=0.5 l=0.15
X157 a_1842_9768# a_2008_7168# avss.t155 sky130_fd_pr__res_xhigh_po_0p35 l=11
X158 a_6676_3118# a_6510_518# avss.t161 sky130_fd_pr__res_xhigh_po_0p35 l=11
X159 a_6490_9768# a_6324_7168# avss.t72 sky130_fd_pr__res_xhigh_po_0p35 l=11
X160 a_1364_3118# a_1198_518# avss.t162 sky130_fd_pr__res_xhigh_po_0p35 l=11
X161 a_4830_9768# a_4664_7168# avss.t45 sky130_fd_pr__res_xhigh_po_0p35 l=11
X162 a_9000_3118# a_9166_518# avss.t156 sky130_fd_pr__res_xhigh_po_0p35 l=11
X163 a_10474_9768# a_10308_7168# avss.t92 sky130_fd_pr__res_xhigh_po_0p35 l=11
X164 a_9996_3118# a_10162_518# avss.t133 sky130_fd_pr__res_xhigh_po_0p35 l=11
X165 a_1510_9768# a_1676_7168# avss.t28 sky130_fd_pr__res_xhigh_po_0p35 l=11
X166 a_7672_3118# a_7506_518# avss.t132 sky130_fd_pr__res_xhigh_po_0p35 l=11
X167 a_514_9768# a_514_7168# avss.t21 sky130_fd_pr__res_xhigh_po_0p35 l=11
X168 a_6822_9768# a_6988_7168# avss.t34 sky130_fd_pr__res_xhigh_po_0p35 l=11
X169 a_4750_4788# a_4194_4788# a_4592_4788# avss.t10 sky130_fd_pr__nfet_g5v0d10v5 ad=0.1218 pd=1.42 as=0.1218 ps=1.42 w=0.42 l=0.5
X170 a_2360_3118# a_2194_518# avss.t103 sky130_fd_pr__res_xhigh_po_0p35 l=11
X171 a_4194_4788# avss.t31 sky130_fd_pr__cap_mim_m3_1 l=6 w=3
X172 a_5494_9768# a_5328_7168# avss.t33 sky130_fd_pr__res_xhigh_po_0p35 l=11
X173 a_2526_4188# level_shifter_0.out_h a_2368_4788# avss.t8 sky130_fd_pr__nfet_g5v0d10v5 ad=0.1218 pd=1.42 as=0.1218 ps=1.42 w=0.42 l=0.5
X174 a_3834_9768# a_3668_7168# avss.t88 sky130_fd_pr__res_xhigh_po_0p35 l=11
X175 a_3082_4788# a_2982_4700# a_2924_4788# avss.t6 sky130_fd_pr__nfet_g5v0d10v5 ad=0.1218 pd=1.42 as=0.1218 ps=1.42 w=0.42 l=0.5
X176 avdd a_534_518# avss.t38 sky130_fd_pr__res_xhigh_po_0p35 l=11
X177 a_1414_4786# a_1414_4786# avss.t5 avss.t4 sky130_fd_pr__nfet_g5v0d10v5 ad=0.1218 pd=1.42 as=0.1218 ps=1.42 w=0.42 l=0.5
X178 a_7560_4786# a_2982_4700# avss.t131 avss.t98 sky130_fd_pr__nfet_g5v0d10v5 ad=0.1218 pd=1.42 as=0.1218 ps=1.42 w=0.42 l=0.5
X179 a_2174_9768# a_2340_7168# avss.t71 sky130_fd_pr__res_xhigh_po_0p35 l=11
X180 a_7486_9768# a_7652_7168# avss.t26 sky130_fd_pr__res_xhigh_po_0p35 l=11
X181 a_10992_3118# a_11158_518# avss.t158 sky130_fd_pr__res_xhigh_po_0p35 l=11
X182 a_8668_3118# a_8502_518# avss.t151 sky130_fd_pr__res_xhigh_po_0p35 l=11
X183 a_3356_3118# a_3190_518# avss.t61 sky130_fd_pr__res_xhigh_po_0p35 l=11
X184 a_4036_4788# a_1414_4786# avss.t3 avss.t2 sky130_fd_pr__nfet_g5v0d10v5 ad=0.1218 pd=1.42 as=0.1218 ps=1.42 w=0.42 l=0.5
X185 a_11470_9768# a_11636_7168# avss.t111 sky130_fd_pr__res_xhigh_po_0p35 l=11
X186 a_2838_9768# a_2672_7168# avss.t37 sky130_fd_pr__res_xhigh_po_0p35 l=11
X187 a_4498_9768# a_4332_7168# avss.t87 sky130_fd_pr__res_xhigh_po_0p35 l=11
X188 a_9810_9768# a_9644_7168# avss.t91 sky130_fd_pr__res_xhigh_po_0p35 l=11
X189 a_1696_3118# a_1862_518# avss.t59 sky130_fd_pr__res_xhigh_po_0p35 l=11
X190 a_9664_3118# a_9498_518# avss.t104 sky130_fd_pr__res_xhigh_po_0p35 l=11
X191 a_10142_9768# a_9976_7168# avss.t42 sky130_fd_pr__res_xhigh_po_0p35 l=11
R0 avss.n269 avss.n3 49093.8
R1 avss.n348 avss.n3 49093.8
R2 avss.n348 avss.n4 49093.8
R3 avss.n269 avss.n4 49093.8
R4 avss.n36 avss.n28 49093.8
R5 avss.n322 avss.n28 49093.8
R6 avss.n322 avss.n29 49093.8
R7 avss.n36 avss.n29 49093.8
R8 avss.n300 avss.n299 4540.48
R9 avss.n324 avss.n323 3194
R10 avss.n301 avss.n39 1647.1
R11 avss.n301 avss.n40 1647.1
R12 avss.n314 avss.n40 1647.1
R13 avss.n314 avss.n39 1647.1
R14 avss.n346 avss.n5 1647.1
R15 avss.n346 avss.n6 1647.1
R16 avss.n326 avss.n6 1647.1
R17 avss.n326 avss.n5 1647.1
R18 avss.n331 avss.n22 1647.1
R19 avss.n332 avss.n22 1647.1
R20 avss.n332 avss.n21 1647.1
R21 avss.n331 avss.n21 1647.1
R22 avss.n215 avss.n214 1647.1
R23 avss.n220 avss.n215 1647.1
R24 avss.n221 avss.n220 1647.1
R25 avss.n221 avss.n214 1647.1
R26 avss.n235 avss.n105 1647.1
R27 avss.n234 avss.n105 1647.1
R28 avss.n234 avss.n104 1647.1
R29 avss.n235 avss.n104 1647.1
R30 avss.n240 avss.n98 1647.1
R31 avss.n241 avss.n98 1647.1
R32 avss.n241 avss.n97 1647.1
R33 avss.n240 avss.n97 1647.1
R34 avss.n189 avss.n182 1647.1
R35 avss.n182 avss.n123 1647.1
R36 avss.n178 avss.n123 1647.1
R37 avss.n189 avss.n178 1647.1
R38 avss.n253 avss.n81 1647.1
R39 avss.n252 avss.n81 1647.1
R40 avss.n252 avss.n80 1647.1
R41 avss.n253 avss.n80 1647.1
R42 avss.n258 avss.n74 1647.1
R43 avss.n259 avss.n74 1647.1
R44 avss.n259 avss.n73 1647.1
R45 avss.n258 avss.n73 1647.1
R46 avss.n162 avss.n140 1647.1
R47 avss.n140 avss.n135 1647.1
R48 avss.n136 avss.n135 1647.1
R49 avss.n162 avss.n136 1647.1
R50 avss.n156 avss.n57 1647.1
R51 avss.n156 avss.n58 1647.1
R52 avss.n288 avss.n58 1647.1
R53 avss.n288 avss.n57 1647.1
R54 avss.n290 avss.n49 1647.1
R55 avss.n290 avss.n50 1647.1
R56 avss.n297 avss.n50 1647.1
R57 avss.n297 avss.n49 1647.1
R58 avss.n202 avss.n18 1647.1
R59 avss.n202 avss.n23 1647.1
R60 avss.n217 avss.n23 1647.1
R61 avss.n217 avss.n18 1647.1
R62 avss.n216 avss.n200 1647.1
R63 avss.n216 avss.n208 1647.1
R64 avss.n223 avss.n208 1647.1
R65 avss.n223 avss.n200 1647.1
R66 avss.n209 avss.n106 1647.1
R67 avss.n209 avss.n107 1647.1
R68 avss.n114 avss.n107 1647.1
R69 avss.n114 avss.n106 1647.1
R70 avss.n117 avss.n95 1647.1
R71 avss.n117 avss.n99 1647.1
R72 avss.n179 avss.n99 1647.1
R73 avss.n179 avss.n95 1647.1
R74 avss.n122 avss.n121 1647.1
R75 avss.n190 avss.n121 1647.1
R76 avss.n190 avss.n120 1647.1
R77 avss.n122 avss.n120 1647.1
R78 avss.n175 avss.n82 1647.1
R79 avss.n175 avss.n83 1647.1
R80 avss.n126 avss.n83 1647.1
R81 avss.n126 avss.n82 1647.1
R82 avss.n129 avss.n71 1647.1
R83 avss.n129 avss.n75 1647.1
R84 avss.n137 avss.n75 1647.1
R85 avss.n137 avss.n71 1647.1
R86 avss.n134 avss.n133 1647.1
R87 avss.n163 avss.n133 1647.1
R88 avss.n163 avss.n132 1647.1
R89 avss.n134 avss.n132 1647.1
R90 avss.n152 avss.n62 1647.1
R91 avss.n152 avss.n144 1647.1
R92 avss.n144 avss.n56 1647.1
R93 avss.n62 avss.n56 1647.1
R94 avss.n292 avss.n54 1647.1
R95 avss.n55 avss.n54 1647.1
R96 avss.n55 avss.n48 1647.1
R97 avss.n292 avss.n48 1647.1
R98 avss.n308 avss.n45 1647.1
R99 avss.n310 avss.n44 1647.1
R100 avss.n310 avss.n45 1647.1
R101 avss.n321 avss.n30 1079.34
R102 avss.n270 avss.n2 1068.09
R103 avss.n349 avss.n2 1063.11
R104 avss.n31 avss.n30 1048.5
R105 avss.t99 avss.n35 934.398
R106 avss.n300 avss.t74 934.398
R107 avss.n321 avss.n320 917.9
R108 avss.n271 avss.n268 883.951
R109 avss.n315 avss.n38 697.509
R110 avss.n309 avss.n44 613.538
R111 avss.n319 avss.n31 612.216
R112 avss.n316 avss.n35 552.742
R113 avss.n350 avss.n1 479.428
R114 avss.n320 avss.n319 434.247
R115 avss.n267 avss.n1 408.832
R116 avss.n64 avss.t131 348.699
R117 avss.n343 avss.t30 347.341
R118 avss.n283 avss.t19 346.911
R119 avss.n264 avss.t15 346.911
R120 avss.n87 avss.t17 346.911
R121 avss.n249 avss.t11 346.911
R122 avss.n246 avss.t3 346.911
R123 avss.n227 avss.t13 346.911
R124 avss.n231 avss.t7 346.911
R125 avss.n337 avss.t9 346.911
R126 avss.n19 avss.t5 346.889
R127 avss.n46 avss.t100 346.827
R128 avss.n33 avss.t75 346.815
R129 avss.n316 avss.n315 236.889
R130 avss.t74 avss.n38 236.889
R131 avss.t58 avss.t137 213.194
R132 avss.t137 avss.t95 213.194
R133 avss.t95 avss.t158 213.194
R134 avss.t158 avss.t93 213.194
R135 avss.t93 avss.t121 213.194
R136 avss.t121 avss.t152 213.194
R137 avss.t152 avss.t129 213.194
R138 avss.t129 avss.t113 213.194
R139 avss.t113 avss.t133 213.194
R140 avss.t133 avss.t69 213.194
R141 avss.t69 avss.t165 213.194
R142 avss.t159 avss.t111 212.946
R143 avss.t154 avss.t159 212.946
R144 avss.t148 avss.t154 212.946
R145 avss.t68 avss.t148 212.946
R146 avss.t57 avss.t68 212.946
R147 avss.t49 avss.t57 212.946
R148 avss.t92 avss.t49 212.946
R149 avss.t25 avss.t92 212.946
R150 avss.t42 avss.t25 212.946
R151 avss.t105 avss.t42 212.946
R152 avss.t91 avss.t105 212.946
R153 avss.n293 avss.n292 210
R154 avss.n292 avss.t98 210
R155 avss.n146 avss.n55 210
R156 avss.t98 avss.n55 210
R157 avss.n285 avss.n62 210
R158 avss.t18 avss.n62 210
R159 avss.n149 avss.n144 210
R160 avss.n144 avss.t18 210
R161 avss.n134 avss.n66 210
R162 avss.t14 avss.n134 210
R163 avss.n164 avss.n163 210
R164 avss.n163 avss.t14 210
R165 avss.n260 avss.n71 210
R166 avss.t16 avss.n71 210
R167 avss.n167 avss.n75 210
R168 avss.t16 avss.n75 210
R169 avss.n251 avss.n82 210
R170 avss.t10 avss.n82 210
R171 avss.n170 avss.n83 210
R172 avss.t10 avss.n83 210
R173 avss.n122 avss.n90 210
R174 avss.t2 avss.n122 210
R175 avss.n191 avss.n190 210
R176 avss.n190 avss.t2 210
R177 avss.n242 avss.n95 210
R178 avss.t12 avss.n95 210
R179 avss.n194 avss.n99 210
R180 avss.t12 avss.n99 210
R181 avss.n233 avss.n106 210
R182 avss.t6 avss.n106 210
R183 avss.n197 avss.n107 210
R184 avss.t6 avss.n107 210
R185 avss.n200 avss.n13 210
R186 avss.t8 avss.n200 210
R187 avss.n208 avss.n207 210
R188 avss.t8 avss.n208 210
R189 avss.n333 avss.n18 210
R190 avss.t4 avss.n18 210
R191 avss.n204 avss.n23 210
R192 avss.t4 avss.n23 210
R193 avss.n295 avss.n49 210
R194 avss.t98 avss.n49 210
R195 avss.n293 avss.n50 210
R196 avss.t98 avss.n50 210
R197 avss.n61 avss.n57 210
R198 avss.t18 avss.n57 210
R199 avss.n285 avss.n58 210
R200 avss.t18 avss.n58 210
R201 avss.n162 avss.n161 210
R202 avss.t14 avss.n162 210
R203 avss.n135 avss.n66 210
R204 avss.t14 avss.n135 210
R205 avss.n258 avss.n257 210
R206 avss.t16 avss.n258 210
R207 avss.n260 avss.n259 210
R208 avss.n259 avss.t16 210
R209 avss.n254 avss.n253 210
R210 avss.n253 avss.t10 210
R211 avss.n252 avss.n251 210
R212 avss.t10 avss.n252 210
R213 avss.n189 avss.n188 210
R214 avss.t2 avss.n189 210
R215 avss.n123 avss.n90 210
R216 avss.t2 avss.n123 210
R217 avss.n240 avss.n239 210
R218 avss.t12 avss.n240 210
R219 avss.n242 avss.n241 210
R220 avss.n241 avss.t12 210
R221 avss.n236 avss.n235 210
R222 avss.n235 avss.t6 210
R223 avss.n234 avss.n233 210
R224 avss.t6 avss.n234 210
R225 avss.n214 avss.n213 210
R226 avss.t8 avss.n214 210
R227 avss.n220 avss.n13 210
R228 avss.n220 avss.t8 210
R229 avss.n331 avss.n330 210
R230 avss.t4 avss.n331 210
R231 avss.n333 avss.n332 210
R232 avss.n332 avss.t4 210
R233 avss.n7 avss.n5 210
R234 avss.t29 avss.n5 210
R235 avss.n8 avss.n6 210
R236 avss.t29 avss.n6 210
R237 avss.n304 avss.n39 210
R238 avss.t74 avss.n39 210
R239 avss.n42 avss.n40 210
R240 avss.t74 avss.n40 210
R241 avss.n311 avss.n310 210
R242 avss.n310 avss.t99 210
R243 avss.n308 avss.n307 210
R244 avss.n269 avss.t58 208.338
R245 avss.t111 avss.n36 208.115
R246 avss.t116 avss.t91 204.929
R247 avss.t165 avss.t104 204.137
R248 avss.t108 avss.t116 197.994
R249 avss.t157 avss.t108 197.994
R250 avss.t141 avss.t157 197.994
R251 avss.t112 avss.t141 197.994
R252 avss.t78 avss.t118 197.994
R253 avss.t118 avss.t86 197.994
R254 avss.t86 avss.t139 197.994
R255 avss.t139 avss.t134 197.994
R256 avss.t134 avss.t145 197.994
R257 avss.t145 avss.t76 197.994
R258 avss.t76 avss.t26 197.994
R259 avss.t26 avss.t150 197.994
R260 avss.t150 avss.t97 197.994
R261 avss.t97 avss.t146 197.994
R262 avss.t146 avss.t34 197.964
R263 avss.t34 avss.t96 197.94
R264 avss.t96 avss.t140 197.94
R265 avss.t140 avss.t72 197.94
R266 avss.t72 avss.t107 197.94
R267 avss.t107 avss.t101 197.94
R268 avss.t79 avss.t126 197.94
R269 avss.t126 avss.t163 197.94
R270 avss.t163 avss.t33 197.94
R271 avss.t33 avss.t82 197.94
R272 avss.t82 avss.t50 197.94
R273 avss.t50 avss.t60 197.94
R274 avss.t60 avss.t45 197.94
R275 avss.t45 avss.t46 197.94
R276 avss.t46 avss.t87 197.94
R277 avss.t87 avss.t117 197.94
R278 avss.t117 avss.t22 197.94
R279 avss.t22 avss.t64 197.94
R280 avss.t64 avss.t88 197.94
R281 avss.t88 avss.t106 197.94
R282 avss.t106 avss.t32 197.94
R283 avss.t32 avss.t143 197.94
R284 avss.t143 avss.t160 197.94
R285 avss.t160 avss.t102 197.94
R286 avss.t102 avss.t37 197.94
R287 avss.t37 avss.t40 197.94
R288 avss.t40 avss.t94 197.94
R289 avss.t94 avss.t71 197.94
R290 avss.t71 avss.t52 197.94
R291 avss.t52 avss.t155 197.94
R292 avss.t155 avss.t89 197.94
R293 avss.t89 avss.t28 197.94
R294 avss.t28 avss.t55 197.94
R295 avss.t55 avss.t81 197.94
R296 avss.t135 avss.t53 197.94
R297 avss.t53 avss.t65 197.94
R298 avss.t65 avss.t136 197.94
R299 avss.t136 avss.t21 197.94
R300 avss.t21 avss.n322 194.738
R301 avss.t104 avss.t130 191.405
R302 avss.t130 avss.t27 191.405
R303 avss.t27 avss.t156 191.405
R304 avss.t156 avss.t124 191.405
R305 avss.t124 avss.t70 191.405
R306 avss.t70 avss.t151 191.405
R307 avss.t151 avss.t67 191.405
R308 avss.n145 avss.n48 168.274
R309 avss.n298 avss.n48 168
R310 avss.n54 avss.n52 168
R311 avss.n291 avss.n54 168
R312 avss.n59 avss.n56 168
R313 avss.n289 avss.n56 168
R314 avss.n152 avss.n151 168
R315 avss.n155 avss.n152 168
R316 avss.n141 avss.n132 168
R317 avss.n153 avss.n132 168
R318 avss.n133 avss.n68 168
R319 avss.n139 avss.n133 168
R320 avss.n137 avss.n70 168
R321 avss.n138 avss.n137 168
R322 avss.n130 avss.n129 168
R323 avss.n129 avss.n128 168
R324 avss.n126 avss.n124 168
R325 avss.n127 avss.n126 168
R326 avss.n175 avss.n174 168
R327 avss.n176 avss.n175 168
R328 avss.n183 avss.n120 168
R329 avss.n177 avss.n120 168
R330 avss.n121 avss.n92 168
R331 avss.n181 avss.n121 168
R332 avss.n179 avss.n94 168
R333 avss.n180 avss.n179 168
R334 avss.n118 avss.n117 168
R335 avss.n117 avss.n116 168
R336 avss.n114 avss.n112 168
R337 avss.n115 avss.n114 168
R338 avss.n209 avss.n110 168
R339 avss.n210 avss.n209 168
R340 avss.n224 avss.n223 168
R341 avss.n223 avss.n222 168
R342 avss.n216 avss.n15 168
R343 avss.n219 avss.n216 168
R344 avss.n217 avss.n17 168
R345 avss.n218 avss.n217 168
R346 avss.n203 avss.n202 168
R347 avss.n202 avss.n27 168
R348 avss.n297 avss.n296 168
R349 avss.n298 avss.n297 168
R350 avss.n290 avss.n53 168
R351 avss.n291 avss.n290 168
R352 avss.n288 avss.n287 168
R353 avss.n289 avss.n288 168
R354 avss.n157 avss.n156 168
R355 avss.n156 avss.n155 168
R356 avss.n143 avss.n136 168
R357 avss.n153 avss.n136 168
R358 avss.n140 avss.n67 168
R359 avss.n140 avss.n139 168
R360 avss.n73 avss.n69 168
R361 avss.n138 avss.n73 168
R362 avss.n77 avss.n74 168
R363 avss.n128 avss.n74 168
R364 avss.n80 avss.n78 168
R365 avss.n127 avss.n80 168
R366 avss.n85 avss.n81 168
R367 avss.n176 avss.n81 168
R368 avss.n185 avss.n178 168
R369 avss.n178 avss.n177 168
R370 avss.n182 avss.n91 168
R371 avss.n182 avss.n181 168
R372 avss.n97 avss.n93 168
R373 avss.n180 avss.n97 168
R374 avss.n101 avss.n98 168
R375 avss.n116 avss.n98 168
R376 avss.n104 avss.n102 168
R377 avss.n115 avss.n104 168
R378 avss.n109 avss.n105 168
R379 avss.n210 avss.n105 168
R380 avss.n221 avss.n111 168
R381 avss.n222 avss.n221 168
R382 avss.n215 avss.n14 168
R383 avss.n219 avss.n215 168
R384 avss.n21 avss.n16 168
R385 avss.n218 avss.n21 168
R386 avss.n25 avss.n22 168
R387 avss.n27 avss.n22 168
R388 avss.n327 avss.n326 168
R389 avss.n326 avss.n325 168
R390 avss.n346 avss.n345 168
R391 avss.n347 avss.n346 168
R392 avss.n302 avss.n301 168
R393 avss.n301 avss.n300 168
R394 avss.n45 avss.n41 168
R395 avss.n45 avss.n35 168
R396 avss.n314 avss.n313 168
R397 avss.n315 avss.n314 168
R398 avss.n44 avss.n43 168
R399 avss.n38 avss.t112 163.405
R400 avss.n348 avss.t38 147.621
R401 avss.n323 avss.t81 146.667
R402 avss.t39 avss.t138 145.094
R403 avss.t132 avss.t80 145.094
R404 avss.t20 avss.t56 145.094
R405 avss.t56 avss.t127 145.094
R406 avss.t127 avss.t1 145.094
R407 avss.t1 avss.t161 145.094
R408 avss.t63 avss.t149 145.094
R409 avss.t54 avss.t142 145.094
R410 avss.t43 avss.t147 145.094
R411 avss.t61 avss.t66 145.094
R412 avss.t166 avss.t83 145.094
R413 avss.t122 avss.t59 145.094
R414 avss.t114 avss.t162 145.094
R415 avss.t125 avss.t23 145.094
R416 avss.t62 avss.t125 145.094
R417 avss.t38 avss.t62 145.094
R418 avss.t138 avss.n298 138.101
R419 avss.t67 avss.t35 136.425
R420 avss.t18 avss.t41 135.48